LTspice 24.0.12 for Windows
Circuit: * H:\spice_model_manager\simulation\TEST_JFET.asc
Start Time: Sun Nov 10 11:31:37 2024
solver = Normal
Maximum thread count: 4
tnom = 27
temp = 27
method = modified trap
v2: Missing value, assumed 0V @ DC
.OP point found by inspection.
.step v2=0
.step v2=0.1
.step v2=0.2
.step v2=0.3
.step v2=0.4
.step v2=0.5
.step v2=0.6
.step v2=0.7
.step v2=0.8
.step v2=0.9
.step v2=1
.step v2=1.1
.step v2=1.2
.step v2=1.3
.step v2=1.4
.step v2=1.5
.step v2=1.6
.step v2=1.7
.step v2=1.8
.step v2=1.9
.step v2=2
.step v2=2.1
.step v2=2.2
.step v2=2.3
.step v2=2.4
.step v2=2.5
.step v2=2.6
.step v2=2.7
.step v2=2.8
.step v2=2.9
.step v2=3
.step v2=3.1
.step v2=3.2
.step v2=3.3
.step v2=3.4
.step v2=3.5
.step v2=3.6
.step v2=3.7
.step v2=3.8
.step v2=3.9
.step v2=4
.step v2=4.1
.step v2=4.2
.step v2=4.3
.step v2=4.4
.step v2=4.5
.step v2=4.6
.step v2=4.7
.step v2=4.8
.step v2=4.9
.step v2=5
.step v2=5.1
.step v2=5.2
.step v2=5.3
.step v2=5.4
.step v2=5.5
.step v2=5.6
.step v2=5.7
.step v2=5.8
.step v2=5.9
.step v2=6
.step v2=6.1
.step v2=6.2
.step v2=6.3
.step v2=6.4
.step v2=6.5
.step v2=6.6
.step v2=6.7
.step v2=6.8
.step v2=6.9
.step v2=7
.step v2=7.1
.step v2=7.2
.step v2=7.3
.step v2=7.4
.step v2=7.5
.step v2=7.6
.step v2=7.7
.step v2=7.8
.step v2=7.9
.step v2=8
.step v2=8.1
.step v2=8.2
.step v2=8.3
.step v2=8.4
.step v2=8.5
.step v2=8.6
.step v2=8.7
.step v2=8.8
.step v2=8.9
.step v2=9
.step v2=9.1
.step v2=9.2
.step v2=9.3
.step v2=9.4
.step v2=9.5
.step v2=9.6
.step v2=9.7
.step v2=9.8
.step v2=9.9
.step v2=10
.step v2=10.1
.step v2=10.2
.step v2=10.3
.step v2=10.4
.step v2=10.5
.step v2=10.6
.step v2=10.7
.step v2=10.8
.step v2=10.9
.step v2=11
.step v2=11.1
.step v2=11.2
.step v2=11.3
.step v2=11.4
.step v2=11.5
.step v2=11.6
.step v2=11.7
.step v2=11.8
.step v2=11.9
.step v2=12
.step v2=12.1
.step v2=12.2
.step v2=12.3
.step v2=12.4
.step v2=12.5
.step v2=12.6
.step v2=12.7
.step v2=12.8
.step v2=12.9
.step v2=13
.step v2=13.1
.step v2=13.2
.step v2=13.3
.step v2=13.4
.step v2=13.5
.step v2=13.6
.step v2=13.7
.step v2=13.8
.step v2=13.9
.step v2=14
.step v2=14.1
.step v2=14.2
.step v2=14.3
.step v2=14.4
.step v2=14.5
.step v2=14.6
.step v2=14.7
.step v2=14.8
.step v2=14.9
.step v2=15
.step v2=15.1
.step v2=15.2
.step v2=15.3
.step v2=15.4
.step v2=15.5
.step v2=15.6
.step v2=15.7
.step v2=15.8
.step v2=15.9
.step v2=16
.step v2=16.1
.step v2=16.2
.step v2=16.3
.step v2=16.4
.step v2=16.5
.step v2=16.6
.step v2=16.7
.step v2=16.8
.step v2=16.9
.step v2=17
.step v2=17.1
.step v2=17.2
.step v2=17.3
.step v2=17.4
.step v2=17.5
.step v2=17.6
.step v2=17.7
.step v2=17.8
.step v2=17.9
.step v2=18
.step v2=18.1
.step v2=18.2
.step v2=18.3
.step v2=18.4
.step v2=18.5
.step v2=18.6
.step v2=18.7
.step v2=18.8
.step v2=18.9
.step v2=19
.step v2=19.1
.step v2=19.2
.step v2=19.3
.step v2=19.4
.step v2=19.5
.step v2=19.6
.step v2=19.7
.step v2=19.8
.step v2=19.9
.step v2=20
Total elapsed time: 0.021 seconds.

